
     RDKit          3D

 12 13  0  0  0  0  0  0  0  0999 V2000
   32.3410   38.4630   34.4160 C   0  0  0  0  0  0  0  0  0  0  0  0
   32.4320   37.0830   34.6760 C   0  0  0  0  0  0  0  0  0  0  0  0
   34.2000   35.6960   31.9070 C   0  0  0  0  0  0  0  0  0  0  0  0
   33.5710   38.1800   32.3090 C   0  0  0  0  0  0  0  0  0  0  0  0
   32.8960   39.0180   33.2330 C   0  0  0  0  0  0  0  0  0  0  0  0
   33.6390   36.8130   32.6110 C   0  0  0  0  0  0  0  0  0  0  0  0
   33.0790   36.2800   33.7350 C   0  0  0  0  0  0  0  0  0  0  0  0
   33.9550   34.5600   32.5610 N   0  0  0  0  0  0  0  0  0  0  0  0
   32.7520   40.4720   32.9680 N   0  0  0  0  0  0  0  0  0  0  0  0
   32.3360   41.1880   33.8730 O   0  0  0  0  0  0  0  0  0  0  0  0
   33.1670   40.9210   31.9050 O   0  0  0  0  0  0  0  0  0  0  0  0
   33.2460   34.9200   33.7540 O   0  0  0  0  0  0  0  0  0  0  0  0
  2  1  1  0
  5  1  1  0
  5  4  1  0
  6  3  1  0
  6  4  1  0
  7  2  1  0
  7  6  1  0
  8  3  1  0
  9  5  1  0
 10  9  1  0
 11  9  1  0
 12  8  1  0
 12  7  1  0
M  END
