
     RDKit          3D

 12 13  0  0  0  0  0  0  0  0999 V2000
   32.5500   37.6340   34.6330 C   0  0  0  0  0  0  0  0  0  0  0  0
   32.8830   36.2770   34.8190 C   0  0  0  0  0  0  0  0  0  0  0  0
   34.7910   35.3560   31.9570 C   0  0  0  0  0  0  0  0  0  0  0  0
   33.7550   37.6690   32.4930 C   0  0  0  0  0  0  0  0  0  0  0  0
   32.9960   38.3430   33.4830 C   0  0  0  0  0  0  0  0  0  0  0  0
   34.0460   36.3170   32.7150 C   0  0  0  0  0  0  0  0  0  0  0  0
   33.6390   35.6450   33.8310 C   0  0  0  0  0  0  0  0  0  0  0  0
   34.8480   34.1920   32.5980 N   0  0  0  0  0  0  0  0  0  0  0  0
   32.6770   39.7880   33.3340 N   0  0  0  0  0  0  0  0  0  0  0  0
   32.1160   40.3610   34.2630 O   0  0  0  0  0  0  0  0  0  0  0  0
   33.1540   40.3960   32.3810 O   0  0  0  0  0  0  0  0  0  0  0  0
   34.0970   34.3530   33.8080 O   0  0  0  0  0  0  0  0  0  0  0  0
  2  1  1  0
  5  1  1  0
  5  4  1  0
  6  4  1  0
  6  3  1  0
  7  6  1  0
  7  2  1  0
  8  3  1  0
  9  5  1  0
 10  9  1  0
 11  9  1  0
 12  8  1  0
 12  7  1  0
M  END
