
     RDKit          3D

 12 13  0  0  0  0  0  0  0  0999 V2000
   32.5340   37.6010   33.7320 C   0  0  0  0  0  0  0  0  0  0  0  0
   33.0150   36.2770   33.7550 C   0  0  0  0  0  0  0  0  0  0  0  0
   34.8950   35.9000   30.7440 C   0  0  0  0  0  0  0  0  0  0  0  0
   33.6460   37.9970   31.5810 C   0  0  0  0  0  0  0  0  0  0  0  0
   32.8400   38.4640   32.6440 C   0  0  0  0  0  0  0  0  0  0  0  0
   34.1200   36.6850   31.6540 C   0  0  0  0  0  0  0  0  0  0  0  0
   33.8100   35.8500   32.6880 C   0  0  0  0  0  0  0  0  0  0  0  0
   35.0390   34.6660   31.2170 N   0  0  0  0  0  0  0  0  0  0  0  0
   32.2930   39.8420   32.6030 N   0  0  0  0  0  0  0  0  0  0  0  0
   31.5540   40.1930   33.5170 O   0  0  0  0  0  0  0  0  0  0  0  0
   32.7860   40.6350   31.8060 O   0  0  0  0  0  0  0  0  0  0  0  0
   34.3520   34.6120   32.4750 O   0  0  0  0  0  0  0  0  0  0  0  0
  2  1  1  0
  5  1  1  0
  5  4  1  0
  6  4  1  0
  6  3  1  0
  7  6  1  0
  7  2  1  0
  8  3  1  0
  9  5  1  0
 10  9  1  0
 11  9  1  0
 12  8  1  0
 12  7  1  0
M  END
