
     RDKit          3D

 12 13  0  0  0  0  0  0  0  0999 V2000
   32.2350   37.7980   34.2180 C   0  0  0  0  0  0  0  0  0  0  0  0
   32.7190   36.5020   34.4880 C   0  0  0  0  0  0  0  0  0  0  0  0
   35.6020   36.1150   32.4280 C   0  0  0  0  0  0  0  0  0  0  0  0
   33.9950   38.1380   32.5420 C   0  0  0  0  0  0  0  0  0  0  0  0
   32.8710   38.6240   33.2530 C   0  0  0  0  0  0  0  0  0  0  0  0
   34.4500   36.8530   32.8540 C   0  0  0  0  0  0  0  0  0  0  0  0
   33.8420   36.0590   33.7830 C   0  0  0  0  0  0  0  0  0  0  0  0
   35.6940   34.9630   33.0890 N   0  0  0  0  0  0  0  0  0  0  0  0
   32.3830   40.0060   33.0280 N   0  0  0  0  0  0  0  0  0  0  0  0
   31.8220   40.5720   33.9600 O   0  0  0  0  0  0  0  0  0  0  0  0
   32.7680   40.6090   32.0330 O   0  0  0  0  0  0  0  0  0  0  0  0
   34.5410   34.8890   33.9390 O   0  0  0  0  0  0  0  0  0  0  0  0
  2  1  1  0
  5  1  1  0
  5  4  1  0
  6  4  1  0
  6  3  1  0
  7  6  1  0
  7  2  1  0
  8  3  1  0
  9  5  1  0
 10  9  1  0
 11  9  1  0
 12  8  1  0
 12  7  1  0
M  END
