
     RDKit          3D

 12 13  0  0  0  0  0  0  0  0999 V2000
   31.8820   37.9310   34.2030 C   0  0  0  0  0  0  0  0  0  0  0  0
   32.1140   36.5520   34.3800 C   0  0  0  0  0  0  0  0  0  0  0  0
   33.8950   35.5100   31.4760 C   0  0  0  0  0  0  0  0  0  0  0  0
   33.0500   37.8850   32.0460 C   0  0  0  0  0  0  0  0  0  0  0  0
   32.3500   38.6080   33.0440 C   0  0  0  0  0  0  0  0  0  0  0  0
   33.2530   36.5190   32.2620 C   0  0  0  0  0  0  0  0  0  0  0  0
   32.8080   35.8720   33.3780 C   0  0  0  0  0  0  0  0  0  0  0  0
   33.8300   34.3310   32.0880 N   0  0  0  0  0  0  0  0  0  0  0  0
   32.1020   40.0630   32.8800 N   0  0  0  0  0  0  0  0  0  0  0  0
   31.6230   40.6800   33.8260 O   0  0  0  0  0  0  0  0  0  0  0  0
   32.5210   40.6220   31.8740 O   0  0  0  0  0  0  0  0  0  0  0  0
   33.1390   34.5430   33.3270 O   0  0  0  0  0  0  0  0  0  0  0  0
  2  1  1  0
  5  1  1  0
  5  4  1  0
  6  4  1  0
  6  3  1  0
  7  2  1  0
  7  6  1  0
  8  3  1  0
  9  5  1  0
 10  9  1  0
 11  9  1  0
 12  8  1  0
 12  7  1  0
M  END
