
     RDKit          3D

 12 13  0  0  0  0  0  0  0  0999 V2000
   32.5370   37.6470   34.0130 C   0  0  0  0  0  0  0  0  0  0  0  0
   33.0090   36.3180   33.9810 C   0  0  0  0  0  0  0  0  0  0  0  0
   35.1890   36.1580   31.1550 C   0  0  0  0  0  0  0  0  0  0  0  0
   33.8420   38.1960   32.0180 C   0  0  0  0  0  0  0  0  0  0  0  0
   32.9600   38.5950   33.0440 C   0  0  0  0  0  0  0  0  0  0  0  0
   34.3020   36.8760   32.0310 C   0  0  0  0  0  0  0  0  0  0  0  0
   33.9090   35.9690   32.9700 C   0  0  0  0  0  0  0  0  0  0  0  0
   35.3510   34.9050   31.5780 N   0  0  0  0  0  0  0  0  0  0  0  0
   32.4880   39.9940   33.0940 N   0  0  0  0  0  0  0  0  0  0  0  0
   31.9360   40.3860   34.1150 O   0  0  0  0  0  0  0  0  0  0  0  0
   32.8970   40.7700   32.2390 O   0  0  0  0  0  0  0  0  0  0  0  0
   34.5170   34.7580   32.7410 O   0  0  0  0  0  0  0  0  0  0  0  0
  2  1  1  0
  5  1  1  0
  5  4  1  0
  6  3  1  0
  6  4  1  0
  7  6  1  0
  7  2  1  0
  8  3  1  0
  9  5  1  0
 10  9  1  0
 11  9  1  0
 12  8  1  0
 12  7  1  0
M  END
