
     RDKit          3D

 12 13  0  0  0  0  0  0  0  0999 V2000
   31.9250   37.8310   33.8910 C   0  0  0  0  0  0  0  0  0  0  0  0
   32.4100   36.5350   34.1630 C   0  0  0  0  0  0  0  0  0  0  0  0
   35.1950   36.0890   31.9920 C   0  0  0  0  0  0  0  0  0  0  0  0
   33.6080   38.1180   32.1250 C   0  0  0  0  0  0  0  0  0  0  0  0
   32.5290   38.6330   32.8860 C   0  0  0  0  0  0  0  0  0  0  0  0
   34.0630   36.8350   32.4420 C   0  0  0  0  0  0  0  0  0  0  0  0
   33.4950   36.0700   33.4180 C   0  0  0  0  0  0  0  0  0  0  0  0
   35.3190   34.9660   32.6940 N   0  0  0  0  0  0  0  0  0  0  0  0
   32.0490   40.0220   32.6670 N   0  0  0  0  0  0  0  0  0  0  0  0
   31.5560   40.6010   33.6320 O   0  0  0  0  0  0  0  0  0  0  0  0
   32.4590   40.6230   31.6810 O   0  0  0  0  0  0  0  0  0  0  0  0
   34.1990   34.9080   33.5860 O   0  0  0  0  0  0  0  0  0  0  0  0
  2  1  1  0
  5  1  1  0
  5  4  1  0
  6  4  1  0
  6  3  1  0
  7  2  1  0
  7  6  1  0
  8  3  1  0
  9  5  1  0
 10  9  1  0
 11  9  1  0
 12  8  1  0
 12  7  1  0
M  END
