
     RDKit          3D

 12 13  0  0  0  0  0  0  0  0999 V2000
   32.1930   38.0740   34.5450 C   0  0  0  0  0  0  0  0  0  0  0  0
   32.3410   36.6980   34.7960 C   0  0  0  0  0  0  0  0  0  0  0  0
   34.0660   35.3830   31.9690 C   0  0  0  0  0  0  0  0  0  0  0  0
   33.3750   37.8430   32.4030 C   0  0  0  0  0  0  0  0  0  0  0  0
   32.6980   38.6540   33.3500 C   0  0  0  0  0  0  0  0  0  0  0  0
   33.4930   36.4780   32.6940 C   0  0  0  0  0  0  0  0  0  0  0  0
   32.9850   35.9210   33.8320 C   0  0  0  0  0  0  0  0  0  0  0  0
   33.8790   34.2410   32.6230 N   0  0  0  0  0  0  0  0  0  0  0  0
   32.4930   40.0980   33.0910 N   0  0  0  0  0  0  0  0  0  0  0  0
   32.0800   40.7980   34.0100 O   0  0  0  0  0  0  0  0  0  0  0  0
   32.8720   40.5660   32.0230 O   0  0  0  0  0  0  0  0  0  0  0  0
   33.1910   34.5670   33.8350 O   0  0  0  0  0  0  0  0  0  0  0  0
  2  1  1  0
  5  1  1  0
  5  4  1  0
  6  4  1  0
  6  3  1  0
  7  2  1  0
  7  6  1  0
  8  3  1  0
  9  5  1  0
 10  9  1  0
 11  9  1  0
 12  8  1  0
 12  7  1  0
M  END
