
     RDKit          3D

 12 13  0  0  0  0  0  0  0  0999 V2000
   32.2620   37.7010   34.1520 C   0  0  0  0  0  0  0  0  0  0  0  0
   32.4810   36.3390   34.4340 C   0  0  0  0  0  0  0  0  0  0  0  0
   34.5860   35.1400   31.8190 C   0  0  0  0  0  0  0  0  0  0  0  0
   33.6600   37.5440   32.1350 C   0  0  0  0  0  0  0  0  0  0  0  0
   32.8550   38.3160   33.0140 C   0  0  0  0  0  0  0  0  0  0  0  0
   33.8510   36.1930   32.4580 C   0  0  0  0  0  0  0  0  0  0  0  0
   33.2900   35.6110   33.5590 C   0  0  0  0  0  0  0  0  0  0  0  0
   34.4780   34.0040   32.5090 N   0  0  0  0  0  0  0  0  0  0  0  0
   32.6210   39.7630   32.7570 N   0  0  0  0  0  0  0  0  0  0  0  0
   32.0840   40.4220   33.6410 O   0  0  0  0  0  0  0  0  0  0  0  0
   33.1900   40.2900   31.8100 O   0  0  0  0  0  0  0  0  0  0  0  0
   33.6400   34.2920   33.6350 O   0  0  0  0  0  0  0  0  0  0  0  0
  2  1  1  0
  5  1  1  0
  5  4  1  0
  6  4  1  0
  6  3  1  0
  7  2  1  0
  7  6  1  0
  8  3  1  0
  9  5  1  0
 10  9  1  0
 11  9  1  0
 12  8  1  0
 12  7  1  0
M  END
