
     RDKit          3D

 12 13  0  0  0  0  0  0  0  0999 V2000
   31.6210   38.3330   33.3980 C   0  0  0  0  0  0  0  0  0  0  0  0
   31.8380   37.0090   33.8290 C   0  0  0  0  0  0  0  0  0  0  0  0
   33.9330   35.5350   31.3480 C   0  0  0  0  0  0  0  0  0  0  0  0
   33.0130   37.9550   31.4080 C   0  0  0  0  0  0  0  0  0  0  0  0
   32.1970   38.8100   32.1900 C   0  0  0  0  0  0  0  0  0  0  0  0
   33.2020   36.6490   31.8760 C   0  0  0  0  0  0  0  0  0  0  0  0
   32.6400   36.1910   33.0310 C   0  0  0  0  0  0  0  0  0  0  0  0
   33.8290   34.4760   32.1540 N   0  0  0  0  0  0  0  0  0  0  0  0
   31.9280   40.2020   31.7550 N   0  0  0  0  0  0  0  0  0  0  0  0
   31.5930   41.0140   32.6090 O   0  0  0  0  0  0  0  0  0  0  0  0
   32.1160   40.5110   30.5850 O   0  0  0  0  0  0  0  0  0  0  0  0
   32.9910   34.8840   33.2450 O   0  0  0  0  0  0  0  0  0  0  0  0
  2  1  1  0
  5  1  1  0
  5  4  1  0
  6  4  1  0
  6  3  1  0
  7  2  1  0
  7  6  1  0
  8  3  1  0
  9  5  1  0
 10  9  1  0
 11  9  1  0
 12  7  1  0
 12  8  1  0
M  END
