
     RDKit          3D

 12 13  0  0  0  0  0  0  0  0999 V2000
   31.9550   37.5040   33.5430 C   0  0  0  0  0  0  0  0  0  0  0  0
   32.3620   36.1910   33.8560 C   0  0  0  0  0  0  0  0  0  0  0  0
   35.1250   35.5230   31.7140 C   0  0  0  0  0  0  0  0  0  0  0  0
   33.6680   37.6550   31.7900 C   0  0  0  0  0  0  0  0  0  0  0  0
   32.6130   38.2470   32.5270 C   0  0  0  0  0  0  0  0  0  0  0  0
   34.0430   36.3540   32.1430 C   0  0  0  0  0  0  0  0  0  0  0  0
   33.4230   35.6470   33.1320 C   0  0  0  0  0  0  0  0  0  0  0  0
   35.1630   34.4040   32.4320 N   0  0  0  0  0  0  0  0  0  0  0  0
   32.2150   39.6530   32.2750 N   0  0  0  0  0  0  0  0  0  0  0  0
   31.7850   40.2920   33.2300 O   0  0  0  0  0  0  0  0  0  0  0  0
   32.6130   40.1980   31.2510 O   0  0  0  0  0  0  0  0  0  0  0  0
   34.0430   34.4420   33.3250 O   0  0  0  0  0  0  0  0  0  0  0  0
  2  1  1  0
  5  1  1  0
  5  4  1  0
  6  4  1  0
  6  3  1  0
  7  2  1  0
  7  6  1  0
  8  3  1  0
  9  5  1  0
 10  9  1  0
 11  9  1  0
 12  8  1  0
 12  7  1  0
M  END
