
     RDKit          3D

 12 13  0  0  0  0  0  0  0  0999 V2000
   32.4350   38.4080   33.9660 C   0  0  0  0  0  0  0  0  0  0  0  0
   32.5160   37.0240   34.2100 C   0  0  0  0  0  0  0  0  0  0  0  0
   34.3590   35.6790   31.4710 C   0  0  0  0  0  0  0  0  0  0  0  0
   33.7270   38.1550   31.8950 C   0  0  0  0  0  0  0  0  0  0  0  0
   33.0190   38.9800   32.8050 C   0  0  0  0  0  0  0  0  0  0  0  0
   33.7930   36.7860   32.1840 C   0  0  0  0  0  0  0  0  0  0  0  0
   33.1910   36.2350   33.2770 C   0  0  0  0  0  0  0  0  0  0  0  0
   34.0560   34.5320   32.0740 N   0  0  0  0  0  0  0  0  0  0  0  0
   32.8640   40.4320   32.5430 N   0  0  0  0  0  0  0  0  0  0  0  0
   32.3880   41.1350   33.4290 O   0  0  0  0  0  0  0  0  0  0  0  0
   33.2630   40.8870   31.4770 O   0  0  0  0  0  0  0  0  0  0  0  0
   33.3240   34.8730   33.2580 O   0  0  0  0  0  0  0  0  0  0  0  0
  2  1  1  0
  5  1  1  0
  5  4  1  0
  6  3  1  0
  6  4  1  0
  7  2  1  0
  7  6  1  0
  8  3  1  0
  9  5  1  0
 10  9  1  0
 11  9  1  0
 12  8  1  0
 12  7  1  0
M  END
