
     RDKit          3D

 12 13  0  0  0  0  0  0  0  0999 V2000
   31.8570   38.2780   34.2130 C   0  0  0  0  0  0  0  0  0  0  0  0
   31.8690   36.8800   34.3820 C   0  0  0  0  0  0  0  0  0  0  0  0
   33.3530   35.5750   31.4190 C   0  0  0  0  0  0  0  0  0  0  0  0
   32.8810   38.0480   31.9900 C   0  0  0  0  0  0  0  0  0  0  0  0
   32.3310   38.8670   33.0100 C   0  0  0  0  0  0  0  0  0  0  0  0
   32.8950   36.6680   32.2180 C   0  0  0  0  0  0  0  0  0  0  0  0
   32.3870   36.1010   33.3480 C   0  0  0  0  0  0  0  0  0  0  0  0
   33.0870   34.4180   32.0200 N   0  0  0  0  0  0  0  0  0  0  0  0
   32.2450   40.3390   32.8180 N   0  0  0  0  0  0  0  0  0  0  0  0
   31.8100   41.0240   33.7400 O   0  0  0  0  0  0  0  0  0  0  0  0
   32.6550   40.8150   31.7640 O   0  0  0  0  0  0  0  0  0  0  0  0
   32.4730   34.7360   33.2750 O   0  0  0  0  0  0  0  0  0  0  0  0
  2  1  1  0
  5  1  1  0
  5  4  1  0
  6  4  1  0
  6  3  1  0
  7  2  1  0
  7  6  1  0
  8  3  1  0
  9  5  1  0
 10  9  1  0
 11  9  1  0
 12  7  1  0
 12  8  1  0
M  END
