
     RDKit          3D

 12 13  0  0  0  0  0  0  0  0999 V2000
   32.0390   37.8380   34.4330 C   0  0  0  0  0  0  0  0  0  0  0  0
   32.5630   36.6100   34.8780 C   0  0  0  0  0  0  0  0  0  0  0  0
   35.0830   35.7290   32.5290 C   0  0  0  0  0  0  0  0  0  0  0  0
   33.5430   37.8150   32.4920 C   0  0  0  0  0  0  0  0  0  0  0  0
   32.5350   38.4580   33.2540 C   0  0  0  0  0  0  0  0  0  0  0  0
   34.0360   36.5970   32.9800 C   0  0  0  0  0  0  0  0  0  0  0  0
   33.5730   36.0160   34.1230 C   0  0  0  0  0  0  0  0  0  0  0  0
   35.2500   34.7070   33.3670 N   0  0  0  0  0  0  0  0  0  0  0  0
   32.0260   39.7990   32.8650 N   0  0  0  0  0  0  0  0  0  0  0  0
   31.4960   40.4670   33.7470 O   0  0  0  0  0  0  0  0  0  0  0  0
   32.4800   40.3190   31.8520 O   0  0  0  0  0  0  0  0  0  0  0  0
   34.2550   34.8570   34.3860 O   0  0  0  0  0  0  0  0  0  0  0  0
  2  1  1  0
  5  1  1  0
  5  4  1  0
  6  4  1  0
  6  3  1  0
  7  2  1  0
  7  6  1  0
  8  3  1  0
  9  5  1  0
 10  9  1  0
 11  9  1  0
 12  8  1  0
 12  7  1  0
M  END
