
     RDKit          3D

 12 13  0  0  0  0  0  0  0  0999 V2000
   31.9290   37.0280   33.5860 C   0  0  0  0  0  0  0  0  0  0  0  0
   32.6060   35.8270   33.8770 C   0  0  0  0  0  0  0  0  0  0  0  0
   35.3070   35.6700   31.5590 C   0  0  0  0  0  0  0  0  0  0  0  0
   33.4760   37.4860   31.7350 C   0  0  0  0  0  0  0  0  0  0  0  0
   32.3630   37.8690   32.5230 C   0  0  0  0  0  0  0  0  0  0  0  0
   34.1320   36.3000   32.0810 C   0  0  0  0  0  0  0  0  0  0  0  0
   33.7200   35.4970   33.1020 C   0  0  0  0  0  0  0  0  0  0  0  0
   35.5930   34.5650   32.2430 N   0  0  0  0  0  0  0  0  0  0  0  0
   31.6680   39.1590   32.2570 N   0  0  0  0  0  0  0  0  0  0  0  0
   30.8110   39.5100   33.0610 O   0  0  0  0  0  0  0  0  0  0  0  0
   32.1790   39.9440   31.4640 O   0  0  0  0  0  0  0  0  0  0  0  0
   34.5610   34.4220   33.2310 O   0  0  0  0  0  0  0  0  0  0  0  0
  2  1  1  0
  5  1  1  0
  5  4  1  0
  6  4  1  0
  6  3  1  0
  7  2  1  0
  7  6  1  0
  8  3  1  0
  9  5  1  0
 10  9  1  0
 11  9  1  0
 12  8  1  0
 12  7  1  0
M  END
