
     RDKit          3D

 12 13  0  0  0  0  0  0  0  0999 V2000
   32.4670   37.6940   34.2440 C   0  0  0  0  0  0  0  0  0  0  0  0
   32.8340   36.3550   34.4870 C   0  0  0  0  0  0  0  0  0  0  0  0
   34.8920   35.4210   31.7370 C   0  0  0  0  0  0  0  0  0  0  0  0
   33.7310   37.6950   32.1380 C   0  0  0  0  0  0  0  0  0  0  0  0
   32.9190   38.3770   33.0800 C   0  0  0  0  0  0  0  0  0  0  0  0
   34.0680   36.3680   32.4230 C   0  0  0  0  0  0  0  0  0  0  0  0
   33.6460   35.7190   33.5460 C   0  0  0  0  0  0  0  0  0  0  0  0
   34.9750   34.2830   32.4190 N   0  0  0  0  0  0  0  0  0  0  0  0
   32.5540   39.8030   32.8630 N   0  0  0  0  0  0  0  0  0  0  0  0
   31.9810   40.3950   33.7730 O   0  0  0  0  0  0  0  0  0  0  0  0
   33.0390   40.3930   31.9030 O   0  0  0  0  0  0  0  0  0  0  0  0
   34.1590   34.4470   33.5870 O   0  0  0  0  0  0  0  0  0  0  0  0
  2  1  1  0
  5  1  1  0
  5  4  1  0
  6  4  1  0
  6  3  1  0
  7  6  1  0
  7  2  1  0
  8  3  1  0
  9  5  1  0
 10  9  1  0
 11  9  1  0
 12  8  1  0
 12  7  1  0
M  END
