
     RDKit          3D

 12 13  0  0  0  0  0  0  0  0999 V2000
   32.2760   38.0070   34.2840 C   0  0  0  0  0  0  0  0  0  0  0  0
   32.5340   36.6230   34.3650 C   0  0  0  0  0  0  0  0  0  0  0  0
   34.2150   35.7880   31.3390 C   0  0  0  0  0  0  0  0  0  0  0  0
   33.3500   38.1040   32.0820 C   0  0  0  0  0  0  0  0  0  0  0  0
   32.6800   38.7530   33.1450 C   0  0  0  0  0  0  0  0  0  0  0  0
   33.5910   36.7350   32.2100 C   0  0  0  0  0  0  0  0  0  0  0  0
   33.1910   36.0130   33.2940 C   0  0  0  0  0  0  0  0  0  0  0  0
   34.1560   34.5660   31.8520 N   0  0  0  0  0  0  0  0  0  0  0  0
   32.4000   40.2080   33.0590 N   0  0  0  0  0  0  0  0  0  0  0  0
   31.8980   40.7670   34.0290 O   0  0  0  0  0  0  0  0  0  0  0  0
   32.8280   40.8290   32.0900 O   0  0  0  0  0  0  0  0  0  0  0  0
   33.5130   34.6920   33.1280 O   0  0  0  0  0  0  0  0  0  0  0  0
  2  1  1  0
  5  1  1  0
  5  4  1  0
  6  4  1  0
  6  3  1  0
  7  2  1  0
  7  6  1  0
  8  3  1  0
  9  5  1  0
 10  9  1  0
 11  9  1  0
 12  8  1  0
 12  7  1  0
M  END
