
     RDKit          3D

 12 13  0  0  0  0  0  0  0  0999 V2000
   32.2260   37.8220   34.2260 C   0  0  0  0  0  0  0  0  0  0  0  0
   32.5330   36.4560   34.3870 C   0  0  0  0  0  0  0  0  0  0  0  0
   33.9690   35.4240   31.2940 C   0  0  0  0  0  0  0  0  0  0  0  0
   33.1310   37.7880   31.9440 C   0  0  0  0  0  0  0  0  0  0  0  0
   32.5170   38.4960   33.0080 C   0  0  0  0  0  0  0  0  0  0  0  0
   33.3960   36.4270   32.1430 C   0  0  0  0  0  0  0  0  0  0  0  0
   33.1030   35.7800   33.3070 C   0  0  0  0  0  0  0  0  0  0  0  0
   33.9760   34.2440   31.9060 N   0  0  0  0  0  0  0  0  0  0  0  0
   32.1760   39.9340   32.8520 N   0  0  0  0  0  0  0  0  0  0  0  0
   31.7290   40.5370   33.8230 O   0  0  0  0  0  0  0  0  0  0  0  0
   32.5030   40.5040   31.8160 O   0  0  0  0  0  0  0  0  0  0  0  0
   33.4450   34.4550   33.2200 O   0  0  0  0  0  0  0  0  0  0  0  0
  2  1  1  0
  5  1  1  0
  5  4  1  0
  6  4  1  0
  6  3  1  0
  7  2  1  0
  7  6  1  0
  8  3  1  0
  9  5  1  0
 10  9  1  0
 11  9  1  0
 12  8  1  0
 12  7  1  0
M  END
