
     RDKit          3D

 12 13  0  0  0  0  0  0  0  0999 V2000
   32.2860   37.7660   33.5540 C   0  0  0  0  0  0  0  0  0  0  0  0
   32.5440   36.3810   33.5320 C   0  0  0  0  0  0  0  0  0  0  0  0
   35.1970   35.9320   31.1940 C   0  0  0  0  0  0  0  0  0  0  0  0
   34.0280   38.1410   31.8700 C   0  0  0  0  0  0  0  0  0  0  0  0
   33.0110   38.6490   32.7140 C   0  0  0  0  0  0  0  0  0  0  0  0
   34.2770   36.7640   31.9110 C   0  0  0  0  0  0  0  0  0  0  0  0
   33.5450   35.9090   32.6820 C   0  0  0  0  0  0  0  0  0  0  0  0
   35.0160   34.6560   31.5250 N   0  0  0  0  0  0  0  0  0  0  0  0
   32.6790   40.0910   32.6910 N   0  0  0  0  0  0  0  0  0  0  0  0
   32.1370   40.5760   33.6780 O   0  0  0  0  0  0  0  0  0  0  0  0
   33.0770   40.7610   31.7440 O   0  0  0  0  0  0  0  0  0  0  0  0
   33.9300   34.6140   32.4580 O   0  0  0  0  0  0  0  0  0  0  0  0
  2  1  1  0
  5  1  1  0
  5  4  1  0
  6  4  1  0
  6  3  1  0
  7  2  1  0
  7  6  1  0
  8  3  1  0
  9  5  1  0
 10  9  1  0
 11  9  1  0
 12  8  1  0
 12  7  1  0
M  END
