
     RDKit          3D

 12 13  0  0  0  0  0  0  0  0999 V2000
   32.6900   37.9800   34.1040 C   0  0  0  0  0  0  0  0  0  0  0  0
   32.9770   36.6220   34.3470 C   0  0  0  0  0  0  0  0  0  0  0  0
   34.4030   35.3920   31.3210 C   0  0  0  0  0  0  0  0  0  0  0  0
   33.5910   37.7960   31.8260 C   0  0  0  0  0  0  0  0  0  0  0  0
   32.9910   38.5750   32.8480 C   0  0  0  0  0  0  0  0  0  0  0  0
   33.8480   36.4500   32.1100 C   0  0  0  0  0  0  0  0  0  0  0  0
   33.5520   35.8790   33.3140 C   0  0  0  0  0  0  0  0  0  0  0  0
   34.4470   34.2600   32.0190 N   0  0  0  0  0  0  0  0  0  0  0  0
   32.6650   40.0040   32.6050 N   0  0  0  0  0  0  0  0  0  0  0  0
   32.2410   40.6680   33.5450 O   0  0  0  0  0  0  0  0  0  0  0  0
   33.0130   40.5130   31.5440 O   0  0  0  0  0  0  0  0  0  0  0  0
   33.9020   34.5530   33.3130 O   0  0  0  0  0  0  0  0  0  0  0  0
  2  1  1  0
  5  1  1  0
  5  4  1  0
  6  4  1  0
  6  3  1  0
  7  6  1  0
  7  2  1  0
  8  3  1  0
  9  5  1  0
 10  9  1  0
 11  9  1  0
 12  8  1  0
 12  7  1  0
M  END
