
     RDKit          3D

 12 13  0  0  0  0  0  0  0  0999 V2000
   32.1460   37.8350   34.3750 C   0  0  0  0  0  0  0  0  0  0  0  0
   32.3870   36.4550   34.5330 C   0  0  0  0  0  0  0  0  0  0  0  0
   34.1030   35.4430   31.5800 C   0  0  0  0  0  0  0  0  0  0  0  0
   33.2580   37.8100   32.1850 C   0  0  0  0  0  0  0  0  0  0  0  0
   32.5830   38.5220   33.2090 C   0  0  0  0  0  0  0  0  0  0  0  0
   33.4780   36.4430   32.3900 C   0  0  0  0  0  0  0  0  0  0  0  0
   33.0600   35.7850   33.5090 C   0  0  0  0  0  0  0  0  0  0  0  0
   34.0720   34.2590   32.1890 N   0  0  0  0  0  0  0  0  0  0  0  0
   32.3300   39.9800   33.0630 N   0  0  0  0  0  0  0  0  0  0  0  0
   31.8170   40.5760   34.0050 O   0  0  0  0  0  0  0  0  0  0  0  0
   32.8270   40.5670   32.1080 O   0  0  0  0  0  0  0  0  0  0  0  0
   33.3980   34.4580   33.4380 O   0  0  0  0  0  0  0  0  0  0  0  0
  2  1  1  0
  5  1  1  0
  5  4  1  0
  6  4  1  0
  6  3  1  0
  7  2  1  0
  7  6  1  0
  8  3  1  0
  9  5  1  0
 10  9  1  0
 11  9  1  0
 12  8  1  0
 12  7  1  0
M  END
