
     RDKit          3D

 12 13  0  0  0  0  0  0  0  0999 V2000
   31.8730   37.1310   33.3280 C   0  0  0  0  0  0  0  0  0  0  0  0
   32.5020   35.9540   33.7790 C   0  0  0  0  0  0  0  0  0  0  0  0
   35.4920   35.6930   31.8630 C   0  0  0  0  0  0  0  0  0  0  0  0
   33.6440   37.4920   31.6690 C   0  0  0  0  0  0  0  0  0  0  0  0
   32.4410   37.9150   32.2890 C   0  0  0  0  0  0  0  0  0  0  0  0
   34.2540   36.3370   32.1760 C   0  0  0  0  0  0  0  0  0  0  0  0
   33.7140   35.5960   33.1860 C   0  0  0  0  0  0  0  0  0  0  0  0
   35.6940   34.6460   32.6610 N   0  0  0  0  0  0  0  0  0  0  0  0
   31.7830   39.1880   31.8890 N   0  0  0  0  0  0  0  0  0  0  0  0
   30.8850   39.6000   32.6160 O   0  0  0  0  0  0  0  0  0  0  0  0
   32.3760   39.9300   31.1120 O   0  0  0  0  0  0  0  0  0  0  0  0
   34.5400   34.5500   33.5080 O   0  0  0  0  0  0  0  0  0  0  0  0
  2  1  1  0
  5  1  1  0
  5  4  1  0
  6  4  1  0
  6  3  1  0
  7  2  1  0
  7  6  1  0
  8  3  1  0
  9  5  1  0
 10  9  1  0
 11  9  1  0
 12  8  1  0
 12  7  1  0
M  END
