
     RDKit          3D

 12 13  0  0  0  0  0  0  0  0999 V2000
   31.9470   37.7740   34.4560 C   0  0  0  0  0  0  0  0  0  0  0  0
   32.1370   36.4060   34.7380 C   0  0  0  0  0  0  0  0  0  0  0  0
   33.6000   35.0130   31.8030 C   0  0  0  0  0  0  0  0  0  0  0  0
   32.9040   37.4760   32.2120 C   0  0  0  0  0  0  0  0  0  0  0  0
   32.3230   38.3170   33.1960 C   0  0  0  0  0  0  0  0  0  0  0  0
   33.0640   36.1220   32.5350 C   0  0  0  0  0  0  0  0  0  0  0  0
   32.6970   35.6040   33.7420 C   0  0  0  0  0  0  0  0  0  0  0  0
   33.5490   33.8950   32.5290 N   0  0  0  0  0  0  0  0  0  0  0  0
   32.1060   39.7600   32.9200 N   0  0  0  0  0  0  0  0  0  0  0  0
   31.6340   40.4530   33.8150 O   0  0  0  0  0  0  0  0  0  0  0  0
   32.5890   40.2410   31.9000 O   0  0  0  0  0  0  0  0  0  0  0  0
   32.9780   34.2640   33.7930 O   0  0  0  0  0  0  0  0  0  0  0  0
  2  1  1  0
  5  1  1  0
  5  4  1  0
  6  4  1  0
  6  3  1  0
  7  2  1  0
  7  6  1  0
  8  3  1  0
  9  5  1  0
 10  9  1  0
 11  9  1  0
 12  7  1  0
 12  8  1  0
M  END
