
     RDKit          3D

 12 13  0  0  0  0  0  0  0  0999 V2000
   32.4150   38.2110   34.5310 C   0  0  0  0  0  0  0  0  0  0  0  0
   32.5740   36.8340   34.7730 C   0  0  0  0  0  0  0  0  0  0  0  0
   34.4990   35.5990   32.0370 C   0  0  0  0  0  0  0  0  0  0  0  0
   33.6740   38.0250   32.4320 C   0  0  0  0  0  0  0  0  0  0  0  0
   32.9510   38.8140   33.3610 C   0  0  0  0  0  0  0  0  0  0  0  0
   33.8240   36.6630   32.7230 C   0  0  0  0  0  0  0  0  0  0  0  0
   33.2830   36.0850   33.8340 C   0  0  0  0  0  0  0  0  0  0  0  0
   34.3450   34.4520   32.6970 N   0  0  0  0  0  0  0  0  0  0  0  0
   32.7570   40.2650   33.1260 N   0  0  0  0  0  0  0  0  0  0  0  0
   32.3020   40.9480   34.0380 O   0  0  0  0  0  0  0  0  0  0  0  0
   33.2010   40.7550   32.0940 O   0  0  0  0  0  0  0  0  0  0  0  0
   33.5630   34.7450   33.8620 O   0  0  0  0  0  0  0  0  0  0  0  0
  2  1  1  0
  5  1  1  0
  5  4  1  0
  6  4  1  0
  6  3  1  0
  7  2  1  0
  7  6  1  0
  8  3  1  0
  9  5  1  0
 10  9  1  0
 11  9  1  0
 12  8  1  0
 12  7  1  0
M  END
