
     RDKit          3D

 12 13  0  0  0  0  0  0  0  0999 V2000
   32.2510   37.8050   34.4350 C   0  0  0  0  0  0  0  0  0  0  0  0
   32.5980   36.4630   34.6870 C   0  0  0  0  0  0  0  0  0  0  0  0
   34.5840   35.4610   31.9030 C   0  0  0  0  0  0  0  0  0  0  0  0
   33.4620   37.7560   32.3000 C   0  0  0  0  0  0  0  0  0  0  0  0
   32.6860   38.4640   33.2520 C   0  0  0  0  0  0  0  0  0  0  0  0
   33.7800   36.4240   32.5910 C   0  0  0  0  0  0  0  0  0  0  0  0
   33.3730   35.8000   33.7330 C   0  0  0  0  0  0  0  0  0  0  0  0
   34.6810   34.3390   32.6130 N   0  0  0  0  0  0  0  0  0  0  0  0
   32.3510   39.8930   33.0290 N   0  0  0  0  0  0  0  0  0  0  0  0
   31.9250   40.5360   33.9820 O   0  0  0  0  0  0  0  0  0  0  0  0
   32.7520   40.4320   32.0040 O   0  0  0  0  0  0  0  0  0  0  0  0
   33.8860   34.5300   33.7920 O   0  0  0  0  0  0  0  0  0  0  0  0
  2  1  1  0
  5  1  1  0
  5  4  1  0
  6  4  1  0
  6  3  1  0
  7  2  1  0
  7  6  1  0
  8  3  1  0
  9  5  1  0
 10  9  1  0
 11  9  1  0
 12  8  1  0
 12  7  1  0
M  END
