
     RDKit          3D

 12 13  0  0  0  0  0  0  0  0999 V2000
   32.3510   38.1580   34.2830 C   0  0  0  0  0  0  0  0  0  0  0  0
   32.4560   36.7610   34.4240 C   0  0  0  0  0  0  0  0  0  0  0  0
   34.1480   35.6290   31.5030 C   0  0  0  0  0  0  0  0  0  0  0  0
   33.5120   38.0590   32.1230 C   0  0  0  0  0  0  0  0  0  0  0  0
   32.8590   38.8130   33.1300 C   0  0  0  0  0  0  0  0  0  0  0  0
   33.6090   36.6770   32.3180 C   0  0  0  0  0  0  0  0  0  0  0  0
   33.0750   36.0430   33.4000 C   0  0  0  0  0  0  0  0  0  0  0  0
   33.8980   34.4420   32.0410 N   0  0  0  0  0  0  0  0  0  0  0  0
   32.7210   40.2850   32.9930 N   0  0  0  0  0  0  0  0  0  0  0  0
   32.1320   40.8990   33.8770 O   0  0  0  0  0  0  0  0  0  0  0  0
   33.2870   40.8430   32.0580 O   0  0  0  0  0  0  0  0  0  0  0  0
   33.2390   34.6870   33.2890 O   0  0  0  0  0  0  0  0  0  0  0  0
  2  1  1  0
  5  1  1  0
  5  4  1  0
  6  4  1  0
  6  3  1  0
  7  2  1  0
  7  6  1  0
  8  3  1  0
  9  5  1  0
 10  9  1  0
 11  9  1  0
 12  8  1  0
 12  7  1  0
M  END
