
     RDKit          3D

 12 13  0  0  0  0  0  0  0  0999 V2000
   32.0700   37.6300   34.3460 C   0  0  0  0  0  0  0  0  0  0  0  0
   32.5970   36.3290   34.4880 C   0  0  0  0  0  0  0  0  0  0  0  0
   35.1720   36.0720   32.0360 C   0  0  0  0  0  0  0  0  0  0  0  0
   33.6060   38.0790   32.4840 C   0  0  0  0  0  0  0  0  0  0  0  0
   32.5760   38.5150   33.3540 C   0  0  0  0  0  0  0  0  0  0  0  0
   34.1010   36.7840   32.6650 C   0  0  0  0  0  0  0  0  0  0  0  0
   33.6210   35.9390   33.6220 C   0  0  0  0  0  0  0  0  0  0  0  0
   35.3400   34.8830   32.6130 N   0  0  0  0  0  0  0  0  0  0  0  0
   32.0470   39.8980   33.2440 N   0  0  0  0  0  0  0  0  0  0  0  0
   31.4220   40.3500   34.1990 O   0  0  0  0  0  0  0  0  0  0  0  0
   32.4740   40.6140   32.3450 O   0  0  0  0  0  0  0  0  0  0  0  0
   34.3230   34.7620   33.6160 O   0  0  0  0  0  0  0  0  0  0  0  0
  2  1  1  0
  5  1  1  0
  5  4  1  0
  6  4  1  0
  6  3  1  0
  7  2  1  0
  7  6  1  0
  8  3  1  0
  9  5  1  0
 10  9  1  0
 11  9  1  0
 12  8  1  0
 12  7  1  0
M  END
