
     RDKit          3D

 12 13  0  0  0  0  0  0  0  0999 V2000
   32.0600   37.8120   34.0030 C   0  0  0  0  0  0  0  0  0  0  0  0
   32.3910   36.4920   34.3640 C   0  0  0  0  0  0  0  0  0  0  0  0
   34.7220   35.3820   31.9090 C   0  0  0  0  0  0  0  0  0  0  0  0
   33.5180   37.6740   32.0310 C   0  0  0  0  0  0  0  0  0  0  0  0
   32.6260   38.4150   32.8470 C   0  0  0  0  0  0  0  0  0  0  0  0
   33.8140   36.3630   32.4280 C   0  0  0  0  0  0  0  0  0  0  0  0
   33.2790   35.7910   33.5460 C   0  0  0  0  0  0  0  0  0  0  0  0
   34.7610   34.3130   32.7030 N   0  0  0  0  0  0  0  0  0  0  0  0
   32.2990   39.8280   32.5260 N   0  0  0  0  0  0  0  0  0  0  0  0
   31.8410   40.5210   33.4300 O   0  0  0  0  0  0  0  0  0  0  0  0
   32.7480   40.3160   31.4950 O   0  0  0  0  0  0  0  0  0  0  0  0
   33.8080   34.5430   33.7490 O   0  0  0  0  0  0  0  0  0  0  0  0
  2  1  1  0
  5  1  1  0
  5  4  1  0
  6  4  1  0
  6  3  1  0
  7  2  1  0
  7  6  1  0
  8  3  1  0
  9  5  1  0
 10  9  1  0
 11  9  1  0
 12  8  1  0
 12  7  1  0
M  END
