
     RDKit          3D

 12 13  0  0  0  0  0  0  0  0999 V2000
   32.3040   37.1540   33.4200 C   0  0  0  0  0  0  0  0  0  0  0  0
   32.8660   35.8610   33.4020 C   0  0  0  0  0  0  0  0  0  0  0  0
   35.4770   35.9940   30.9830 C   0  0  0  0  0  0  0  0  0  0  0  0
   33.8730   37.8950   31.6900 C   0  0  0  0  0  0  0  0  0  0  0  0
   32.8010   38.1770   32.5670 C   0  0  0  0  0  0  0  0  0  0  0  0
   34.4150   36.6060   31.7230 C   0  0  0  0  0  0  0  0  0  0  0  0
   33.9290   35.6210   32.5300 C   0  0  0  0  0  0  0  0  0  0  0  0
   35.6310   34.7230   31.3450 N   0  0  0  0  0  0  0  0  0  0  0  0
   32.2030   39.5340   32.5830 N   0  0  0  0  0  0  0  0  0  0  0  0
   31.3840   39.7910   33.4560 O   0  0  0  0  0  0  0  0  0  0  0  0
   32.6880   40.3980   31.8590 O   0  0  0  0  0  0  0  0  0  0  0  0
   34.6250   34.4570   32.3340 O   0  0  0  0  0  0  0  0  0  0  0  0
  2  1  1  0
  5  1  1  0
  5  4  1  0
  6  4  1  0
  6  3  1  0
  7  6  1  0
  7  2  1  0
  8  3  1  0
  9  5  1  0
 10  9  1  0
 11  9  1  0
 12  8  1  0
 12  7  1  0
M  END
