
     RDKit          3D

 12 13  0  0  0  0  0  0  0  0999 V2000
   32.2470   38.1350   34.3460 C   0  0  0  0  0  0  0  0  0  0  0  0
   32.5720   36.8010   34.6650 C   0  0  0  0  0  0  0  0  0  0  0  0
   34.3460   35.5520   31.8410 C   0  0  0  0  0  0  0  0  0  0  0  0
   33.3600   37.9210   32.1670 C   0  0  0  0  0  0  0  0  0  0  0  0
   32.6440   38.7060   33.1050 C   0  0  0  0  0  0  0  0  0  0  0  0
   33.6460   36.5970   32.5220 C   0  0  0  0  0  0  0  0  0  0  0  0
   33.2710   36.0530   33.7170 C   0  0  0  0  0  0  0  0  0  0  0  0
   34.4000   34.4560   32.5930 N   0  0  0  0  0  0  0  0  0  0  0  0
   32.3060   40.1200   32.8000 N   0  0  0  0  0  0  0  0  0  0  0  0
   31.8490   40.8080   33.7070 O   0  0  0  0  0  0  0  0  0  0  0  0
   32.6840   40.6000   31.7360 O   0  0  0  0  0  0  0  0  0  0  0  0
   33.7110   34.7580   33.8140 O   0  0  0  0  0  0  0  0  0  0  0  0
  2  1  1  0
  5  1  1  0
  5  4  1  0
  6  4  1  0
  6  3  1  0
  7  2  1  0
  7  6  1  0
  8  3  1  0
  9  5  1  0
 10  9  1  0
 11  9  1  0
 12  8  1  0
 12  7  1  0
M  END
