
     RDKit          3D

 12 13  0  0  0  0  0  0  0  0999 V2000
   32.5990   37.6380   33.7880 C   0  0  0  0  0  0  0  0  0  0  0  0
   33.0300   36.2950   33.7580 C   0  0  0  0  0  0  0  0  0  0  0  0
   34.9640   35.9810   30.7750 C   0  0  0  0  0  0  0  0  0  0  0  0
   33.7630   38.0880   31.6740 C   0  0  0  0  0  0  0  0  0  0  0  0
   32.9730   38.5440   32.7580 C   0  0  0  0  0  0  0  0  0  0  0  0
   34.1810   36.7540   31.6940 C   0  0  0  0  0  0  0  0  0  0  0  0
   33.8350   35.8880   32.6890 C   0  0  0  0  0  0  0  0  0  0  0  0
   35.0980   34.7300   31.2110 N   0  0  0  0  0  0  0  0  0  0  0  0
   32.5320   39.9610   32.8050 N   0  0  0  0  0  0  0  0  0  0  0  0
   32.0990   40.3930   33.8680 O   0  0  0  0  0  0  0  0  0  0  0  0
   32.8690   40.7010   31.8860 O   0  0  0  0  0  0  0  0  0  0  0  0
   34.3740   34.6500   32.4490 O   0  0  0  0  0  0  0  0  0  0  0  0
  2  1  1  0
  5  1  1  0
  5  4  1  0
  6  4  1  0
  6  3  1  0
  7  6  1  0
  7  2  1  0
  8  3  1  0
  9  5  1  0
 10  9  1  0
 11  9  1  0
 12  8  1  0
 12  7  1  0
M  END
