
     RDKit          3D

 12 13  0  0  0  0  0  0  0  0999 V2000
   31.8090   38.2350   34.1760 C   0  0  0  0  0  0  0  0  0  0  0  0
   31.9180   36.8670   34.4910 C   0  0  0  0  0  0  0  0  0  0  0  0
   33.9220   35.4490   31.9080 C   0  0  0  0  0  0  0  0  0  0  0  0
   33.1690   37.9150   32.1550 C   0  0  0  0  0  0  0  0  0  0  0  0
   32.4220   38.7660   33.0080 C   0  0  0  0  0  0  0  0  0  0  0  0
   33.2660   36.5660   32.5190 C   0  0  0  0  0  0  0  0  0  0  0  0
   32.6530   36.0560   33.6260 C   0  0  0  0  0  0  0  0  0  0  0  0
   33.6930   34.3360   32.6010 N   0  0  0  0  0  0  0  0  0  0  0  0
   32.2670   40.2080   32.6910 N   0  0  0  0  0  0  0  0  0  0  0  0
   31.8180   40.9480   33.5620 O   0  0  0  0  0  0  0  0  0  0  0  0
   32.7140   40.6310   31.6310 O   0  0  0  0  0  0  0  0  0  0  0  0
   32.8820   34.7090   33.7210 O   0  0  0  0  0  0  0  0  0  0  0  0
  2  1  1  0
  5  1  1  0
  5  4  1  0
  6  4  1  0
  6  3  1  0
  7  2  1  0
  7  6  1  0
  8  3  1  0
  9  5  1  0
 10  9  1  0
 11  9  1  0
 12  7  1  0
 12  8  1  0
M  END
