
     RDKit          3D

 12 13  0  0  0  0  0  0  0  0999 V2000
   32.3610   38.0740   34.1280 C   0  0  0  0  0  0  0  0  0  0  0  0
   32.4740   36.6790   34.2890 C   0  0  0  0  0  0  0  0  0  0  0  0
   34.1940   35.5290   31.3830 C   0  0  0  0  0  0  0  0  0  0  0  0
   33.5060   37.9480   31.9560 C   0  0  0  0  0  0  0  0  0  0  0  0
   32.8600   38.7120   32.9600 C   0  0  0  0  0  0  0  0  0  0  0  0
   33.6160   36.5720   32.1720 C   0  0  0  0  0  0  0  0  0  0  0  0
   33.1060   35.9550   33.2750 C   0  0  0  0  0  0  0  0  0  0  0  0
   34.0300   34.3530   31.9810 N   0  0  0  0  0  0  0  0  0  0  0  0
   32.6960   40.1770   32.7900 N   0  0  0  0  0  0  0  0  0  0  0  0
   32.2580   40.8290   33.7330 O   0  0  0  0  0  0  0  0  0  0  0  0
   33.0910   40.6930   31.7500 O   0  0  0  0  0  0  0  0  0  0  0  0
   33.3210   34.6050   33.2010 O   0  0  0  0  0  0  0  0  0  0  0  0
  2  1  1  0
  5  1  1  0
  5  4  1  0
  6  4  1  0
  6  3  1  0
  7  2  1  0
  7  6  1  0
  8  3  1  0
  9  5  1  0
 10  9  1  0
 11  9  1  0
 12  8  1  0
 12  7  1  0
M  END
