
     RDKit          3D

 12 13  0  0  0  0  0  0  0  0999 V2000
   31.7640   38.0030   33.9790 C   0  0  0  0  0  0  0  0  0  0  0  0
   31.9960   36.6200   34.1120 C   0  0  0  0  0  0  0  0  0  0  0  0
   33.9500   35.7020   31.2800 C   0  0  0  0  0  0  0  0  0  0  0  0
   33.0480   38.0500   31.8860 C   0  0  0  0  0  0  0  0  0  0  0  0
   32.2860   38.7260   32.8720 C   0  0  0  0  0  0  0  0  0  0  0  0
   33.2620   36.6790   32.0690 C   0  0  0  0  0  0  0  0  0  0  0  0
   32.7480   35.9840   33.1240 C   0  0  0  0  0  0  0  0  0  0  0  0
   33.8370   34.4970   31.8300 N   0  0  0  0  0  0  0  0  0  0  0  0
   32.0240   40.1820   32.7470 N   0  0  0  0  0  0  0  0  0  0  0  0
   31.5400   40.7710   33.7080 O   0  0  0  0  0  0  0  0  0  0  0  0
   32.4690   40.7720   31.7680 O   0  0  0  0  0  0  0  0  0  0  0  0
   33.0690   34.6560   33.0290 O   0  0  0  0  0  0  0  0  0  0  0  0
  2  1  1  0
  5  1  1  0
  5  4  1  0
  6  4  1  0
  6  3  1  0
  7  2  1  0
  7  6  1  0
  8  3  1  0
  9  5  1  0
 10  9  1  0
 11  9  1  0
 12  8  1  0
 12  7  1  0
M  END
