
     RDKit          3D

 12 13  0  0  0  0  0  0  0  0999 V2000
   32.7120   37.7970   34.5180 C   0  0  0  0  0  0  0  0  0  0  0  0
   32.9340   36.4120   34.6630 C   0  0  0  0  0  0  0  0  0  0  0  0
   34.5350   35.3870   31.6480 C   0  0  0  0  0  0  0  0  0  0  0  0
   33.7330   37.7590   32.2860 C   0  0  0  0  0  0  0  0  0  0  0  0
   33.1140   38.4810   33.3390 C   0  0  0  0  0  0  0  0  0  0  0  0
   33.9360   36.3890   32.4760 C   0  0  0  0  0  0  0  0  0  0  0  0
   33.5550   35.7370   33.6100 C   0  0  0  0  0  0  0  0  0  0  0  0
   34.5210   34.2060   32.2590 N   0  0  0  0  0  0  0  0  0  0  0  0
   32.8970   39.9430   33.2110 N   0  0  0  0  0  0  0  0  0  0  0  0
   32.4870   40.5530   34.1940 O   0  0  0  0  0  0  0  0  0  0  0  0
   33.3310   40.5100   32.2150 O   0  0  0  0  0  0  0  0  0  0  0  0
   33.8860   34.4100   33.5300 O   0  0  0  0  0  0  0  0  0  0  0  0
  2  1  1  0
  5  4  1  0
  5  1  1  0
  6  4  1  0
  6  3  1  0
  7  6  1  0
  7  2  1  0
  8  3  1  0
  9  5  1  0
 10  9  1  0
 11  9  1  0
 12  8  1  0
 12  7  1  0
M  END
