
     RDKit          3D

 12 13  0  0  0  0  0  0  0  0999 V2000
   32.2500   38.2280   34.5240 C   0  0  0  0  0  0  0  0  0  0  0  0
   32.4440   36.8520   34.7540 C   0  0  0  0  0  0  0  0  0  0  0  0
   34.7380   35.7780   32.2450 C   0  0  0  0  0  0  0  0  0  0  0  0
   33.7690   38.1540   32.5930 C   0  0  0  0  0  0  0  0  0  0  0  0
   32.9120   38.8890   33.4540 C   0  0  0  0  0  0  0  0  0  0  0  0
   33.9400   36.7920   32.8690 C   0  0  0  0  0  0  0  0  0  0  0  0
   33.3040   36.1620   33.8990 C   0  0  0  0  0  0  0  0  0  0  0  0
   34.6030   34.6190   32.8860 N   0  0  0  0  0  0  0  0  0  0  0  0
   32.7080   40.3470   33.2540 N   0  0  0  0  0  0  0  0  0  0  0  0
   32.1450   40.9780   34.1440 O   0  0  0  0  0  0  0  0  0  0  0  0
   33.2890   40.8980   32.3270 O   0  0  0  0  0  0  0  0  0  0  0  0
   33.6630   34.8410   33.9450 O   0  0  0  0  0  0  0  0  0  0  0  0
  2  1  1  0
  5  1  1  0
  5  4  1  0
  6  3  1  0
  6  4  1  0
  7  2  1  0
  7  6  1  0
  8  3  1  0
  9  5  1  0
 10  9  1  0
 11  9  1  0
 12  8  1  0
 12  7  1  0
M  END
