
     RDKit          3D

 12 13  0  0  0  0  0  0  0  0999 V2000
   32.2000   37.7930   34.0880 C   0  0  0  0  0  0  0  0  0  0  0  0
   32.5520   36.4470   34.3140 C   0  0  0  0  0  0  0  0  0  0  0  0
   34.3480   35.4510   31.3980 C   0  0  0  0  0  0  0  0  0  0  0  0
   33.2640   37.7400   31.8770 C   0  0  0  0  0  0  0  0  0  0  0  0
   32.5620   38.4500   32.8810 C   0  0  0  0  0  0  0  0  0  0  0  0
   33.5900   36.4090   32.1420 C   0  0  0  0  0  0  0  0  0  0  0  0
   33.2620   35.7840   33.3100 C   0  0  0  0  0  0  0  0  0  0  0  0
   34.5020   34.3360   32.1040 N   0  0  0  0  0  0  0  0  0  0  0  0
   32.2360   39.8830   32.6800 N   0  0  0  0  0  0  0  0  0  0  0  0
   31.8240   40.5180   33.6440 O   0  0  0  0  0  0  0  0  0  0  0  0
   32.6290   40.4310   31.6570 O   0  0  0  0  0  0  0  0  0  0  0  0
   33.7950   34.5220   33.3380 O   0  0  0  0  0  0  0  0  0  0  0  0
  2  1  1  0
  5  1  1  0
  5  4  1  0
  6  4  1  0
  6  3  1  0
  7  2  1  0
  7  6  1  0
  8  3  1  0
  9  5  1  0
 10  9  1  0
 11  9  1  0
 12  8  1  0
 12  7  1  0
M  END
