
     RDKit          3D

 12 13  0  0  0  0  0  0  0  0999 V2000
   32.5190   37.6980   34.1160 C   0  0  0  0  0  0  0  0  0  0  0  0
   32.8140   36.3220   34.2090 C   0  0  0  0  0  0  0  0  0  0  0  0
   34.3160   35.4640   31.0890 C   0  0  0  0  0  0  0  0  0  0  0  0
   33.4420   37.7740   31.8450 C   0  0  0  0  0  0  0  0  0  0  0  0
   32.8420   38.4350   32.9440 C   0  0  0  0  0  0  0  0  0  0  0  0
   33.7180   36.4110   31.9830 C   0  0  0  0  0  0  0  0  0  0  0  0
   33.4230   35.7060   33.1140 C   0  0  0  0  0  0  0  0  0  0  0  0
   34.3840   34.2650   31.6630 N   0  0  0  0  0  0  0  0  0  0  0  0
   32.5580   39.8880   32.8630 N   0  0  0  0  0  0  0  0  0  0  0  0
   32.1210   40.4500   33.8610 O   0  0  0  0  0  0  0  0  0  0  0  0
   32.9990   40.5090   31.9010 O   0  0  0  0  0  0  0  0  0  0  0  0
   33.8120   34.3960   32.9740 O   0  0  0  0  0  0  0  0  0  0  0  0
  2  1  1  0
  5  1  1  0
  5  4  1  0
  6  4  1  0
  6  3  1  0
  7  6  1  0
  7  2  1  0
  8  3  1  0
  9  5  1  0
 10  9  1  0
 11  9  1  0
 12  8  1  0
 12  7  1  0
M  END
